iidm/iidm-xml-converter/src/test/resources/V1_1/eurostag-tutorial-example1-anonymized.xml
<?xml version="1.0" encoding="UTF-8"?>
<iidm:network xmlns:iidm="http://www.powsybl.org/schema/iidm/1_3" id="sim1" caseDate="2013-01-15T18:45:00.000+01:00" forecastDistance="0" sourceFormat="test">
    <iidm:substation id="A" country="FR" tso="B">
        <iidm:property name="geographicalTags" value="A"/>
        <iidm:voltageLevel id="C" nominalV="24.0" topologyKind="BUS_BREAKER">
            <iidm:busBreakerTopology>
                <iidm:bus id="D"/>
            </iidm:busBreakerTopology>
            <iidm:generator id="E" energySource="OTHER" minP="-9999.99" maxP="9999.99" voltageRegulatorOn="true" targetP="607.0" targetV="24.5" targetQ="301.0" bus="D" connectableBus="D">
                <iidm:minMaxReactiveLimits minQ="-9999.99" maxQ="9999.99"/>
            </iidm:generator>
        </iidm:voltageLevel>
        <iidm:voltageLevel id="F" nominalV="380.0" topologyKind="BUS_BREAKER">
            <iidm:busBreakerTopology>
                <iidm:bus id="G"/>
            </iidm:busBreakerTopology>
        </iidm:voltageLevel>
        <iidm:twoWindingsTransformer id="H" r="0.26658461538461536" x="11.104492831516762" g="0.0" b="0.0" ratedU1="24.0" ratedU2="400.0" bus1="D" connectableBus1="D" voltageLevelId1="C" bus2="G" connectableBus2="G" voltageLevelId2="F"/>
    </iidm:substation>
    <iidm:substation id="I" country="FR" tso="B">
        <iidm:property name="geographicalTags" value="B"/>
        <iidm:voltageLevel id="J" nominalV="380.0" topologyKind="BUS_BREAKER">
            <iidm:busBreakerTopology>
                <iidm:bus id="K"/>
            </iidm:busBreakerTopology>
        </iidm:voltageLevel>
        <iidm:voltageLevel id="L" nominalV="150.0" topologyKind="BUS_BREAKER">
            <iidm:busBreakerTopology>
                <iidm:bus id="M"/>
            </iidm:busBreakerTopology>
            <iidm:load id="N" loadType="UNDEFINED" p0="600.0" q0="200.0" bus="M" connectableBus="M"/>
        </iidm:voltageLevel>
        <iidm:twoWindingsTransformer id="O" r="0.04724999999999999" x="4.049724365620455" g="0.0" b="0.0" ratedU1="400.0" ratedU2="158.0" bus1="K" connectableBus1="K" voltageLevelId1="J" bus2="M" connectableBus2="M" voltageLevelId2="L">
            <iidm:ratioTapChanger lowTapPosition="0" tapPosition="1" loadTapChangingCapabilities="true" regulating="true" targetV="158.0">
                <iidm:terminalRef id="O" side="TWO"/>
                <iidm:step r="0.0" x="0.0" g="0.0" b="0.0" rho="0.8505666905244191"/>
                <iidm:step r="0.0" x="0.0" g="0.0" b="0.0" rho="1.0006666666666666"/>
                <iidm:step r="0.0" x="0.0" g="0.0" b="0.0" rho="1.150766642808914"/>
            </iidm:ratioTapChanger>
        </iidm:twoWindingsTransformer>
    </iidm:substation>
    <iidm:line id="P" r="3.0" x="33.0" g1="0.0" b1="1.93E-4" g2="0.0" b2="1.93E-4" bus1="G" connectableBus1="G" voltageLevelId1="F" bus2="K" connectableBus2="K" voltageLevelId2="J"/>
    <iidm:line id="Q" r="3.0" x="33.0" g1="0.0" b1="1.93E-4" g2="0.0" b2="1.93E-4" bus1="G" connectableBus1="G" voltageLevelId1="F" bus2="K" connectableBus2="K" voltageLevelId2="J"/>
</iidm:network>
